*LTspice
*
*ZMR500
*Standard linear regulator
*AE01005500
*
*netlist
.include ZMR500.cir
*
*params
*
*load regulation
*.param VSOURCE=8
*.param ILOAD=0.05
*.dc I1 0 {ILOAD} 100n
*
*line regulation
.param VSOURCE=25
.param ILOAD=0.01
.dc V1 8 {VSOURCE} 0.001
*
.backanno
.op
